example/data/d_wecc.m
% Modified WECC test system, with 181 buses
% Modified from WECC 179-bus system

Bus.con = [ ...
        1         500     0.99361   -0.357138     10     10;
        2         345     1.02903   -0.206638     10     10;
        3          20     1.01148   -0.241871     10     10;
        4         345     1.01368    0.216182     60     70;
        5          20     1.01712     0.33026     60     70;
        6         500     1.12547   -0.161904     10     10;
        7         345     1.04845   -0.110216     10     10;
        8          20     1.01935   0.0037542     10     10;
        9         230     1.04664      -0.119     10     10;
       10          20           1    0.508898     10     10;
       11         500     1.15161   -0.378551     10     10;
       12          20     1.08081   -0.286538     10     10;
       13         500     1.15234   -0.392263     10     10;
       14          20     1.03911   -0.352433     10     10;
       15         500      1.1295    -0.47092     10     10;
       16         345     1.06265  -0.0952374     10     10;
       17          20        1.01  -0.0449318     10     10;
       18         500     1.13748     -0.4686     10     10;
       19         500     1.14341   -0.362924     10     10;
       20         500      1.1509   -0.407749     10     10;
       21         500     1.12344   -0.349588     10     10;
       22         500     1.10525   -0.498223     10     10;
       23         500     1.14048   -0.368668     10     10;
       24         500     1.12042   -0.492802     10     10;
       25         500     1.14954   -0.259667     10     10;
       26         500     1.02866   -0.672774     10     10;
       27         500     1.11272   -0.127842     10     10;
       28         500     1.13373   -0.479798     10     10;
       29          20     1.05527    0.313484     50     50;
       30         500     1.09433    0.254122     50     50;
       31         500     1.03936    0.743889     50     50;
       32         230     0.99847    0.825375     50     50;
       33         230     1.00373    0.981481     50     50;
       34          20        1.02     1.06715     50     50;
       35          22     1.06125 6.10865e-05     60     63;
       36         500     1.07297   -0.667472     90     90;
       37         500     1.09333   -0.736943     90     90;
       38         230     1.04123    -0.75497     26     26;
       39          20     1.02393   -0.732291     26     26;
       40         230     1.04269   -0.817374     26     26;
       41         230     1.04467   -0.812346     26     26;
       42          20     1.00496   -0.755536     26     26;
       43         345     1.06442   -0.108881     90     90;
       44          20     1.06068  -0.0294838     90     90;
       45         230     1.04611   -0.760897     26     26;
       46          20     1.01546   -0.753916     26     26;
       47         230     1.04566   -0.764494     26     26;
       48         500     1.08445   -0.724223     26     26;
       49         230     1.03943   -0.832704     26     26;
       50         138     1.04793   -0.833564     26     26;
       51         287     1.05183   -0.813454     26     26;
       52         287     1.05183   -0.813454     26     26;
       53         230     1.04287   -0.837133     26     26;
       54         230     1.04048   -0.802497     26     26;
       55         500     1.05779     -0.7617     26     26;
       56         230     1.04058   -0.833281     26     26;
       57         230     1.04059   -0.821465     26     26;
       58         230     1.04267   -0.782824     26     26;
       59         230     1.04935   -0.752734     90     90;
       60         230     1.03068   -0.771713     24     24;
       61         230     1.04229   -0.784896     26     26;
       62         287     1.06562   -0.707366     26     26;
       63         500     1.07102   -0.672896     26     26;
       64          20        1.08    0.751048     60     62;
       65         500     1.13557    0.625851     60     62;
       66         115     1.04177   -0.306356     40     40;
       67         230     1.03973    -0.26299     40     40;
       68         500     1.08364   -0.240588     40     40;
       69          20        1.03   -0.141455     40     40;
       70         230     1.03577   -0.272298     90     90;
       71         500     1.08226    -0.24244     40     40;
       72         500     1.10766   0.0709948     60     62;
       73         500     1.11555  -0.0574894     40     41;
       74         500     1.09515   -0.299684     60     62;
       75         500     1.11457   -0.204924     40     40;
       76          20     1.04512           0     40     40;
       77         500      1.1403  -0.0586762     40     41;
       78          20      1.0647    0.337292     40     42;
       79         500     1.11464    0.116326     40     42;
       80         500     1.11137   -0.346123     40     40;
       81         500     1.12109   -0.306352     40     40;
       82         500     1.12407    -0.40741     40     40;
       83         500     1.12132   -0.120382     61     61;
       84         345       1.053  -0.0633729     61     61;
       85         500     1.11895   -0.325619     40     40;
       86         500      1.1295   -0.333295     40     40;
       87         500      1.1179   -0.287875     40     40;
       88         500     1.10339    -0.25996     40     40;
       89         500     1.12464   -0.350759     40     40;
       90         500     1.14661   -0.381674     40     40;
       91         500     1.12366   -0.308236     40     40;
       92         500     1.13655   -0.392655     40     40;
       93         500     1.12813   -0.319191     40     40;
       94         500     1.14647   -0.385793     40     40;
       95         500     1.12341    -0.30826     40     40;
       96         500     1.13621   -0.397359     40     40;
       97         500     1.12758   -0.319781     40     40;
       98         500     1.01905   0.0888425     40     40;
       99         230     1.03177   -0.562958     39     39;
      100         230     1.12739   -0.507795     39     39;
      101         500     1.09283   -0.739168     38     38;
      102          20     1.05077   -0.679542     38     38;
      103         500     1.07607   -0.764472     38     38;
      104         230     1.02175    -0.55503     39     39;
      105         230     1.11621   -0.571471     39     39;
      106         500     1.06808   -0.795259     39     39;
      107         500     1.07043   -0.779176     38     38;
      108         230     1.13261   -0.829026     38     38;
      109         500     1.06526   -0.799719     39     39;
      110         500     1.10947   -0.529083     80     80;
      111          20     1.07075   -0.267421     39     39;
      112         230     1.15677   -0.429817     39     39;
      113         500     1.08067   -0.481978     39     39;
      114         500     1.06166   -0.516185     39     39;
      115          20       1.012   -0.576501     39     39;
      116         200     1.08072     -0.6511     39     39;
      117          20       1.012   -0.491677     39     39;
      118         500     0.99117     -0.6343     39     39;
      119         500     1.12426   -0.428367     80     80;
      120         500     1.07766   -0.629619     80     80;
      121         500     1.10132   -0.524613     80     80;
      122         500     1.03251   -0.754851     80     80;
      123         500     1.08706   -0.431355     39     39;
      124         500     1.04974   -0.551521     39     39;
      125         500     1.08706   -0.431355     39     39;
      126         500     1.04974   -0.551521     39     39;
      127         500     1.07966   -0.407515     39     39;
      128         500     1.00804   -0.756956     39     39;
      129         500     1.09103   -0.436997     39     39;
      130         500      0.9971   -0.680059     39     39;
      131         500     1.01443   -0.602472     39     39;
      132         500     1.07257    -0.82793     39     39;
      133         500     1.10181   -0.570916     39     39;
      134         500     1.04998   -0.805614     38     38;
      135         500      1.0855   -0.688028     24     24;
      136         230     1.01363    -0.84926     24     24;
      137          20        1.02   -0.396427     24     29;
      138         500     1.07993   -0.517399     24     29;
      139          20       1.009    -0.79184     24     24;
      140         230     1.00194   -0.901422     24     24;
      141         500     1.05985    -0.73418     24     24;
      142         230     1.00314   -0.889299     24     24;
      143          20       1.009   -0.717725     24     24;
      144         500     1.03185   -0.795369     24     24;
      145         230     1.02962   -0.803178     24     24;
      146         500     1.08169    -0.45195     24     29;
      147          22        1.05   -0.308309     24     24;
      148          20        1.01   -0.621072     24     24;
      149         230     1.01244    -0.83059     24     24;
      150         500     1.04459   -0.801563     25     25;
      151         500     1.06411   -0.759422     24     24;
      152         500     1.06986    -0.78425     24     24;
      153         230     1.00186   -0.830342     24     24;
      154         345     1.06619  -0.0697434     60     65;
      155         345     1.08193  -0.0777719     60     65;
      156         230     1.09107  -0.0870047     60     65;
      157         345      1.0337   0.0252322     60     65;
      158          20        1.02    0.111104     60     65;
      159         345     1.06764  -0.0686071     60     65;
      160         230     1.11056  -0.0178495     60     63;
      161          20     1.06159   0.0254434     60     63;
      162         345     1.13174  -0.0875195     60     65;
      163         345     1.15979  -0.0749479     60     65;
      164         345     1.05148   -0.056622     60     65;
      165         345     1.05706  -0.0557127     60     65;
      166         345     1.06561   -0.070904     60     65;
      167         500     1.14854    -0.34945     40     40;
      168         500     1.05292    -0.54708     40     40;
      169         500     1.15295   -0.337334     40     40;
      170         500     1.05425   -0.547698     40     40;
      171         500     1.08195   -0.318868     40     40;
      172         500     1.08798    -0.61744     40     40;
      173         500     1.06034   -0.773385     38     38;
      174         500     1.06032   -0.790039     38     38;
      175         500     1.06012   -0.773303     38     38;
      176         500     1.06043   -0.790063     38     38;
      177         500     1.05999   -0.773137     38     38;
      178         500     1.06293   -0.789659     38     38;
      179         500     1.04218   -0.144487     40     40;
      180          20           1   -0.299684     40     40;
      181          20      1.1085   -0.634214     39     39;
   ];

SW.con = [ ...
       76       10522          20     1.04512           0    0.251758   -0.175822         1.1         0.9    0.556786 1 1  1;
   ];

PV.con = [ ...
     3        1462          20    0.547196     1.01148    0.205198   -0.205198         1.1         0.9 1  1;
     5        1488          20    0.704301     1.01712    0.268817   -0.268817         1.1         0.9 1  1;
     8        2458          20    0.878763     1.01935    0.284784   -0.203417         1.1         0.9 1  1;
    10        3000          20    0.683333           1         0.3        -0.3         1.1         0.9 1  1;
    12        3540          20    0.477401     1.08081     0.19774   -0.079096         1.1         0.9 1  1;
    14        3117          20    0.846968     1.03911    0.417068   -0.288739         1.1         0.9 1  1;
    17        2054          20    0.468354        1.01    0.632911   -0.632911         1.1         0.9 1  1;
    29       10578          20    0.420684     1.05527    0.378143   -0.378143         1.1         0.9 1  1;
    34     6698.04          20    0.668852        1.02    0.794262   -0.522541         1.1         0.9 1  1;
    35        2166          22    0.757156     1.06125    0.277008   -0.242382         1.1         0.9 1  1;
    39         500          20         0.4     1.02393       0.536      -0.268         1.1         0.9 1  1;
    42         540          20    0.601852     1.00496    0.555556   -0.407407         1.1         0.9 1  1;
    44        1982          20    0.898083     1.06068     0.42886   -0.221998         1.1         0.9 1  1;
    46         113          20    0.973451     1.01546    0.884956   -0.884956         1.1         0.9 1  1;
    64        4830          20    0.602484        1.08    0.310629   -0.207039         1.1         0.9 1  1;
    69        2822          20    0.461021        1.03    0.245216   -0.251949         1.1         0.9 1  1;
    78       14469          20    0.681457      1.0647    0.399475   -0.138227         1.1         0.9 1  1;
   102        1685          20    0.454006     1.05077    0.195846   -0.183976         1.1         0.9 1  1;
   111        2000          20      0.5285     1.07075        0.75        -0.5         1.1         0.9 1  1;
   115         895          20    0.663687       1.012    0.335196   -0.335196         1.1         0.9 1  1;
   117        7913          20     0.43814       1.012    0.315936   -0.126374         1.1         0.9 1  1;
   137        2104          20    0.467063        1.02    0.142586   -0.142586         1.1         0.9 1  1;
   139       10871          20    0.293901       1.009    0.183976  -0.0827891         1.1         0.9 1  1;
   143        3000          20    0.563333       1.009    0.333333   -0.466667         1.1         0.9 1  1;
   147      3393.6          22     0.49505        1.05    0.206271  -0.0884017         1.1         0.9 1  1;
   148        2500          20        0.88        1.01        0.24       -0.24         1.1         0.9 1  1;
   158        2229          20    0.746972        1.02    0.224316   -0.224316         1.1         0.9 1  1;
   161         832          20    0.534856     1.06159    0.138221   -0.120192         1.1         0.9 1  1;
   180        2000          20           0           1         0.5        -0.5         1.1         0.9 1  1;
   181        2000          20           0      1.1085        0.75       -0.75         1.1         0.9 1  1;
   ];

PQ.con = [ ...
     1 100         500        17.5       -0.56         1.1         0.9 0 1;
     3 100          20           1           0         1.1         0.9 0 1;
     4 100         345        23.5       -1.27         1.1         0.9 0 1;
     5 100          20           1           0         1.1         0.9 0 1;
     7 100         345        2.39       -0.56         1.1         0.9 0 1;
     8 100          20           1           0         1.1         0.9 0 1;
     9 100         230       1.397       0.238         1.1         0.9 0 1;
    10 100          20           1           0         1.1         0.9 0 1;
    11 100         500         0.9         0.7         1.1         0.9 0 1;
    12 100          20           1           0         1.1         0.9 0 1;
    14 100          20           1           0         1.1         0.9 0 1;
    15 100         500       7.934        2.07         1.1         0.9 0 1;
    16 100         345         8.4        0.05         1.1         0.9 0 1;
    17 100          20           1           0         1.1         0.9 0 1;
    18 100         500        6.17       -0.69         1.1         0.9 0 1;
    29 100          20           1           0         1.1         0.9 0 1;
    30 100         500          44          10         1.1         0.9 0 1;
    33 100         230          36           7         1.1         0.9 0 1;
    34 100          20           1           0         1.1         0.9 0 1;
    35 100          22           1           0         1.1         0.9 0 1;
    36 100         500      -18.62        9.71         1.1         0.9 0 1;
    39 100          20           1           0         1.1         0.9 0 1;
    40 100         230        1.35        0.27         1.1         0.9 0 1;
    42 100          20           1           0         1.1         0.9 0 1;
    43 100         345       20.53       9.071         1.1         0.9 0 1;
    44 100          20           1           0         1.1         0.9 0 1;
    45 100         230      -0.728       -0.17         1.1         0.9 0 1;
    46 100          20           1           0         1.1         0.9 0 1;
    47 100         230        1.21        0.25         1.1         0.9 0 1;
    49 100         230         3.2        0.65         1.1         0.9 0 1;
    50 100         138       2.372      -0.632         1.1         0.9 0 1;
    53 100         230        1.38        0.28         1.1         0.9 0 1;
    54 100         230       8.078       1.321         1.1         0.9 0 1;
    56 100         230        1.17        0.24         1.1         0.9 0 1;
    57 100         230        1.21        0.25         1.1         0.9 0 1;
    58 100         230       8.877      -0.062         1.1         0.9 0 1;
    59 100         230      -27.71       16.54         1.1         0.9 0 1;
    60 100         230        4.01       0.806         1.1         0.9 0 1;
    61 100         230       2.052       0.176         1.1         0.9 0 1;
    62 100         287       -1.29       0.322         1.1         0.9 0 1;
    64 100          20           1           0         1.1         0.9 0 1;
    65 100         500          17           3         1.1         0.9 0 1;
    66 100         115         1.6      0.3125         1.1         0.9 0 1;
    67 100         230      -0.675         1.6         1.1         0.9 0 1;
    68 100         500      -0.442        0.22         1.1         0.9 0 1;
    69 100          20           1           0         1.1         0.9 0 1;
    70 100         230       31.37       16.81         1.1         0.9 0 1;
    72 100         500      -15.25        -0.5         1.1         0.9 0 1;
    74 100         500       25.84        3.94         1.1         0.9 0 1;
    75 100         500          32          11         1.1         0.9 0 1;
    76 100          20           1           0         1.1         0.9 0 1;
    77 100         500          35           5         1.1         0.9 0 1;
    78 100          20           1           0         1.1         0.9 0 1;
    79 100         500          50           4         1.1         0.9 0 1;
    81 100         500      -0.666       -0.97         1.1         0.9 0 1;
    82 100         500       -3.39       -1.19         1.1         0.9 0 1;
    84 100         345         6.1       -4.14         1.1         0.9 0 1;
    99 100         230      -0.433         0.2         1.1         0.9 0 1;
   100 100         230       2.104       -0.77         1.1         0.9 0 1;
   101 100         500         0.5        0.25         1.1         0.9 0 1;
   102 100          20           1           0         1.1         0.9 0 1;
   103 100         500        3.05      -0.076         1.1         0.9 0 1;
   104 100         230       0.275      -0.001         1.1         0.9 0 1;
   105 100         230      0.0801           0         1.1         0.9 0 1;
   106 100         500        2.65        0.14         1.1         0.9 0 1;
   107 100         500       0.556       -3.29         1.1         0.9 0 1;
   108 100         230       7.776       0.326         1.1         0.9 0 1;
   109 100         500         0.4       0.215         1.1         0.9 0 1;
   110 100         500       -1.89       0.615         1.1         0.9 0 1;
   111 100          20           1           0         1.1         0.9 0 1;
   112 100         230        1.48           0         1.1         0.9 0 1;
   114 100         500      -0.007       1.185         1.1         0.9 0 1;
   115 100          20           1           0         1.1         0.9 0 1;
   116 100         200        8.84       0.548         1.1         0.9 0 1;
   117 100          20           1           0         1.1         0.9 0 1;
   118 100         500       57.61       34.91         1.1         0.9 0 1;
   135 100         500        8.56       0.196         1.1         0.9 0 1;
   136 100         230        1.75        0.18         1.1         0.9 0 1;
   137 100          20           1           0         1.1         0.9 0 1;
   138 100         500       9.023      -0.114         1.1         0.9 0 1;
   139 100          20           1           0         1.1         0.9 0 1;
   140 100         230       31.91         6.3         1.1         0.9 0 1;
   141 100         500       2.042      -0.282         1.1         0.9 0 1;
   142 100         230       3.774       0.645         1.1         0.9 0 1;
   143 100          20           1           0         1.1         0.9 0 1;
   144 100         500       30.98       11.89         1.1         0.9 0 1;
   147 100          22           1           0         1.1         0.9 0 1;
   148 100          20           1           0         1.1         0.9 0 1;
   149 100         230       31.18        0.78         1.1         0.9 0 1;
   150 100         500        12.3       0.728         1.1         0.9 0 1;
   151 100         500        4.06        0.41         1.1         0.9 0 1;
   153 100         230       10.66      -0.108         1.1         0.9 0 1;
   154 100         345       4.577       0.817         1.1         0.9 0 1;
   155 100         345       0.339       0.119         1.1         0.9 0 1;
   156 100         230        1.48      -0.079         1.1         0.9 0 1;
   157 100         345       1.161       0.384         1.1         0.9 0 1;
   158 100          20           1           0         1.1         0.9 0 1;
   159 100         345       -0.62       0.128         1.1         0.9 0 1;
   160 100         230        2.55           1         1.1         0.9 0 1;
   161 100          20           1           0         1.1         0.9 0 1;
   163 100         345       0.316       0.115         1.1         0.9 0 1;
   164 100         345       1.412       0.714         1.1         0.9 0 1;
   165 100         345        3.79       -0.43         1.1         0.9 0 1;
   166 100         345        1.85       0.785         1.1         0.9 0 1;
     2 100         345           0           0         1.1         0.9 0 1;
     6 100         500           0           0         1.1         0.9 0 1;
    13 100         500           0           0         1.1         0.9 0 1;
    19 100         500           0           0         1.1         0.9 0 1;
    20 100         500           0           0         1.1         0.9 0 1;
    21 100         500           0           0         1.1         0.9 0 1;
    22 100         500           0           0         1.1         0.9 0 1;
    23 100         500           0           0         1.1         0.9 0 1;
    24 100         500           0           0         1.1         0.9 0 1;
    25 100         500           0           0         1.1         0.9 0 1;
    26 100         500           0           0         1.1         0.9 0 1;
    27 100         500           0           0         1.1         0.9 0 1;
    28 100         500           0           0         1.1         0.9 0 1;
    31 100         500           0           0         1.1         0.9 0 1;
    32 100         230           0           0         1.1         0.9 0 1;
    37 100         500           0           0         1.1         0.9 0 1;
    38 100         230           0           0         1.1         0.9 0 1;
    41 100         230           0           0         1.1         0.9 0 1;
    48 100         500           0           0         1.1         0.9 0 1;
    51 100         287           0           0         1.1         0.9 0 1;
    52 100         287           0           0         1.1         0.9 0 1;
    55 100         500           0           0         1.1         0.9 0 1;
    63 100         500           0           0         1.1         0.9 0 1;
    71 100         500           0           0         1.1         0.9 0 1;
    73 100         500           0           0         1.1         0.9 0 1;
    80 100         500           0           0         1.1         0.9 0 1;
    83 100         500           0           0         1.1         0.9 0 1;
    85 100         500           0           0         1.1         0.9 0 1;
    86 100         500           0           0         1.1         0.9 0 1;
    87 100         500           0           0         1.1         0.9 0 1;
    88 100         500           0           0         1.1         0.9 0 1;
    89 100         500           0           0         1.1         0.9 0 1;
    90 100         500           0           0         1.1         0.9 0 1;
    91 100         500           0           0         1.1         0.9 0 1;
    92 100         500           0           0         1.1         0.9 0 1;
    93 100         500           0           0         1.1         0.9 0 1;
    94 100         500           0           0         1.1         0.9 0 1;
    95 100         500           0           0         1.1         0.9 0 1;
    96 100         500           0           0         1.1         0.9 0 1;
    97 100         500           0           0         1.1         0.9 0 1;
    98 100         500           0           0         1.1         0.9 0 1;
   113 100         500           0           0         1.1         0.9 0 1;
   119 100         500           0           0         1.1         0.9 0 1;
   120 100         500           0           0         1.1         0.9 0 1;
   121 100         500           0           0         1.1         0.9 0 1;
   122 100         500           0           0         1.1         0.9 0 1;
   123 100         500           0           0         1.1         0.9 0 1;
   124 100         500           0           0         1.1         0.9 0 1;
   125 100         500           0           0         1.1         0.9 0 1;
   126 100         500           0           0         1.1         0.9 0 1;
   127 100         500           0           0         1.1         0.9 0 1;
   128 100         500           0           0         1.1         0.9 0 1;
   129 100         500           0           0         1.1         0.9 0 1;
   130 100         500           0           0         1.1         0.9 0 1;
   131 100         500           0           0         1.1         0.9 0 1;
   132 100         500           0           0         1.1         0.9 0 1;
   133 100         500           0           0         1.1         0.9 0 1;
   134 100         500           0           0         1.1         0.9 0 1;
   145 100         230           0           0         1.1         0.9 0 1;
   146 100         500           0           0         1.1         0.9 0 1;
   152 100         500           0           0         1.1         0.9 0 1;
   162 100         345           0           0         1.1         0.9 0 1;
   167 100         500           0           0         1.1         0.9 0 1;
   168 100         500           0           0         1.1         0.9 0 1;
   169 100         500           0           0         1.1         0.9 0 1;
   170 100         500           0           0         1.1         0.9 0 1;
   171 100         500           0           0         1.1         0.9 0 1;
   172 100         500           0           0         1.1         0.9 0 1;
   173 100         500           0           0         1.1         0.9 0 1;
   174 100         500           0           0         1.1         0.9 0 1;
   175 100         500           0           0         1.1         0.9 0 1;
   176 100         500           0           0         1.1         0.9 0 1;
   177 100         500           0           0         1.1         0.9 0 1;
   178 100         500           0           0         1.1         0.9 0 1;
   179 100         500           0           0         1.1         0.9 0 1;
   ];

Shunt.con = [ ...
     6 100         500 60           0       -1.13 1;
     7 100         345 60           0       -1.55 1;
    11 100         500 60           0        -1.9 1;
    13 100         500 60           0       -3.91 1;
    15 100         500 60           0       -1.46 1;
    16 100         345 60           0         3.9 1;
    18 100         500 60           0       -4.27 1;
    25 100         500 60           0           1 1;
    31 100         500 60           0          -6 1;
    32 100         230 60           0           6 1;
    36 100         500 60           0        9.12 1;
    40 100         230 60           0           1 1;
    43 100         345 60           0         4.3 1;
    48 100         500 60           0        -0.8 1;
    59 100         230 60           0       21.46 1;
    62 100         287 60           0       -1.08 1;
    64 100          20 60           0          10 1;
    65 100         500 60           0          -2 1;
    67 100         230 60           0           1 1;
    69 100          20 60           0           5 1;
    70 100         230 60           0           1 1;
    71 100         500 60           0           1 1;
    72 100         500 60           0       -12.5 1;
    73 100         500 60           0          -2 1;
    74 100         500 60           0         8.5 1;
    75 100         500 60           0          12 1;
    77 100         500 60           0          15 1;
    79 100         500 60           0           1 1;
    80 100         500 60           0        -2.2 1;
    81 100         500 60           0       -6.74 1;
    82 100         500 60           0           2 1;
    83 100         500 60           0        -2.2 1;
    84 100         345 60           0        -8.7 1;
    99 100         230 60           0          -1 1;
   103 100         500 60           0       -0.91 1;
   104 100         230 60           0        -1.5 1;
   107 100         500 60           0       -3.27 1;
   108 100         230 60           0          -6 1;
   110 100         500 60           0          -1 1;
   111 100          20 60           0       -6.25 1;
   112 100         230 60           0       -1.25 1;
   113 100         500 60           0       -0.91 1;
   114 100         500 60           0       -0.91 1;
   115 100          20 60           0           2 1;
   116 100         200 60           0       -2.32 1;
   117 100          20 60           0           5 1;
   118 100         500 60           0          45 1;
   122 100         500 60           0          -7 1;
   128 100         500 60           0          -3 1;
   130 100         500 60           0          -5 1;
   131 100         500 60           0          -5 1;
   133 100         500 60           0          -9 1;
   137 100          20 60           0        -0.5 1;
   138 100         500 60           0       -3.19 1;
   144 100         500 60           0           4 1;
   146 100         500 60           0       -1.96 1;
   153 100         230 60           0        -1.9 1;
   154 100         345 60           0        -0.6 1;
   157 100         345 60           0        -2.2 1;
   163 100         345 60           0           2 1;
   165 100         345 60           0        -0.5 1;
   171 100         500 60           0           3 1;
   172 100         500 60           0           2 1;
   179 100         500 60           0        -2.2 1;
   ];

Line.con = [ ...
     2      7 100         345 60 0            0     0.00179     0.01988       2.576           0           0           0           0           0  1;
     2      7 100         345 60 0            0     0.00179     0.01988       2.576           0           0           0           0           0  1;
     4     16 100         345 60 0            0     0.01954         0.2           1           0           0           0           0           0  1;
     4     16 100         345 60 0            0     0.01954         0.2           1           0           0           0           0           0  1;
     4    159 100         345 60 0            0     0.00811      0.1369      2.4348           0           0           0           0           0  1;
     6     27 100         500 60 0            0          -0    -0.00818           0           0           0           0           0           0  1;
     6     27 100         500 60 0            0          -0    -0.00818           0           0           0           0           0           0  1;
     7     16 100         345 60 0            0       0.001      0.0106      0.0441           0           0           0           0           0  1;
     7     16 100         345 60 0            0       0.001      0.0106      0.0441           0           0           0           0           0  1;
     7    162 100         345 60 0            0      0.0048      0.0436      0.7078           0           0           0           0           0  1;
    11     19 100         500 60 0            0          -0    -0.00634           0           0           0           0           0           0  1;
    11     21 100         500 60 0            0          -0    -0.01188           0           0           0           0           0           0  1;
    11    138 100         500 60 0            0      0.0028      0.0211      1.0194           0           0           0           0        16.3  1;
    13     20 100         500 60 0            0          -0    -0.00634           0           0           0           0           0           0  1;
    13     23 100         500 60 0            0          -0    -0.00826           0           0           0           0           0           0  1;
    13     25 100         500 60 0            0          -0    -0.01795           0           0           0           0           0           0  1;
    13     28 100         500 60 0            0          -0    -0.02224           0           0           0           0           0           0  1;
    13     28 100         500 60 0            0          -0    -0.02224           0           0           0           0           0           0  1;
    15     18 100         500 60 0            0      0.0004      0.0096      0.9038           0           0           0           0           0  1;
    15     18 100         500 60 0            0      0.0004      0.0096      0.9038           0           0           0           0           0  1;
    15    135 100         500 60 0            0     0.00259     0.02967       2.153           0           0           0           0          18  1;
    15    135 100         500 60 0            0     0.00259     0.02967       2.153           0           0           0           0          18  1;
    18     22 100         500 60 0            0          -0    -0.01188           0           0           0           0           0           0  1;
    18     24 100         500 60 0            0          -0    -0.00826           0           0           0           0           0           0  1;
    19     20 100         500 60 0            0     0.00077     0.01804      1.3984           0           0           0           0           0  1;
    21     22 100         500 60 0            0     0.00241     0.05865      4.8656           0           0           0           0           0  1;
    23     24 100         500 60 0            0     0.00179     0.04244      3.3922           0           0           0           0           0  1;
    25     26 100         500 60 0            0     0.00207     0.04959      3.9516           0           0           0           0           0  1;
    26    138 100         500 60 0            0          -0    -0.01795           0           0           0           0           0           0  1;
    27     28 100         500 60 0            0     0.00354      0.0837      3.3446           0           0           0           0           0  1;
    27     28 100         500 60 0            0     0.00354      0.0837      3.3446           0           0           0           0           0  1;
    30     31 100         500 60 0            0      0.0105        0.21       1.506           0           0           0           0           0  1;
    30     31 100         500 60 0            0      0.0105        0.21       1.506           0           0           0           0           0  1;
    30     31 100         500 60 0            0      0.0105        0.21       1.506           0           0           0           0           0  1;
    30     79 100         500 60 0            0     0.00166      0.0478        1.65           0           0           0           0           0  1;
    30     79 100         500 60 0            0     0.00166      0.0478        1.65           0           0           0           0           0  1;
    32     33 100         230 60 0            0       0.004        0.04         0.8           0           0           0           0           0  1;
    32     33 100         230 60 0            0       0.004        0.04         0.8           0           0           0           0           0  1;
    36     37 100         500 60 0            0     0.00074     0.01861      1.4026           0           0           0           0           0  1;
    36     55 100         500 60 0            0     0.00082     0.01668       1.188           0           0           0           0           0  1;
    36     63 100         500 60 0            0          -0     0.00159     0.12002           0           0           0           0           0  1;
    36     63 100         500 60 0            0          -0     0.00159     0.12002           0           0           0           0           0  1;
    38     45 100         230 60 0            0     0.00221     0.03346     0.07338           0           0           0           0           0  1;
    38     47 100         230 60 0            0      0.0029       0.038      0.0824           0           0           0           0           0  1;
    38     58 100         230 60 0            0     0.00309     0.04677      0.1008           0           0           0           0           0  1;
    38     59 100         230 60 0            0     0.00226     0.03422     0.07506           0           0           0           0           0  1;
    40     54 100         230 60 0            0     0.00047     0.00723     0.01624           0           0           0           0           0  1;
    40     57 100         230 60 0            0     0.00035     0.00536     0.01204           0           0           0           0           0  1;
    41     49 100         230 60 0            0      0.0022     0.03422     0.07716           0           0           0           0           0  1;
    41     49 100         230 60 0            0     0.00238     0.03669     0.08284           0           0           0           0           0  1;
    41     56 100         230 60 0            0     0.00201     0.03074     0.06886           0           0           0           0           0  1;
    41     57 100         230 60 0            0     0.00281     0.04296     0.09648           0           0           0           0           0  1;
    43    159 100         345 60 0            0      0.0018      0.0245      0.4392           0           0           0           0           0  1;
    43    159 100         345 60 0            0      0.0018      0.0245      0.4392           0           0           0           0           0  1;
    45     47 100         230 60 0            0     0.00029     0.00434      0.0095           0           0           0           0           0  1;
    47     54 100         230 60 0            0     0.00229     0.01583      0.0306           0           0           0           0           0  1;
    47     54 100         230 60 0            0     0.00229     0.01583      0.0306           0           0           0           0           0  1;
    47     58 100         230 60 0            0     0.00141     0.00967      0.0194           0           0           0           0           0  1;
    47     58 100         230 60 0            0     0.00141     0.00967      0.0194           0           0           0           0           0  1;
    47     58 100         230 60 0            0     0.00161     0.00971     0.01928           0           0           0           0           0  1;
    47     58 100         230 60 0            0     0.00161     0.00971     0.01928           0           0           0           0           0  1;
    47     59 100         230 60 0            0     0.00027     0.00393     0.00918           0           0           0           0           0  1;
    47     59 100         230 60 0            0     0.00027     0.00393     0.00918           0           0           0           0           0  1;
    47     59 100         230 60 0            0     0.00027     0.00393     0.00918           0           0           0           0           0  1;
    47     61 100         230 60 0            0     0.00138     0.01116      0.0247           0           0           0           0           0  1;
    47     61 100         230 60 0            0     0.00138     0.01116      0.0247           0           0           0           0           0  1;
    48     63 100         500 60 0            0     0.00083     0.01884      1.6667           0           0           0           0           0  1;
    49     56 100         230 60 0            0     0.00037     0.00366      0.0083           0           0           0           0           0  1;
    49     57 100         230 60 0            0     0.00055     0.00586     0.01246           0           0           0           0           0  1;
    51     62 100         287 60 0            0      0.0107     0.07905      0.3667           0           0           0           0           0  1;
    52     62 100         287 60 0            0      0.0107     0.07905      0.3667           0           0           0           0           0  1;
    53     56 100         230 60 0            0     0.00073     0.01025     0.02558           0           0           0           0           0  1;
    53     56 100         230 60 0            0     0.00073     0.01025     0.02558           0           0           0           0           0  1;
    54     57 100         230 60 0            0     0.00119     0.01244     0.02798           0           0           0           0           0  1;
    54     57 100         230 60 0            0     0.00119     0.01244     0.02798           0           0           0           0           0  1;
    54     61 100         230 60 0            0     0.00128     0.00979      0.0212           0           0           0           0           0  1;
    56     57 100         230 60 0            0      0.0011     0.01189     0.02514           0           0           0           0           0  1;
    60    136 100         230 60 0            0      0.0014      0.0264       0.102           0           0           0           0        30.7  1;
    60    149 100         230 60 0            0     0.00065     0.01187     0.04672           0           0           0           0        30.7  1;
    60    149 100         230 60 0            0     0.00065     0.01187     0.04672           0           0           0           0        30.7  1;
    63    138 100         500 60 0            0     0.00179     0.02524     0.53546           0           0           0           0           0  1;
    63    138 100         500 60 0            0     0.00179     0.02524     0.53546           0           0           0           0           0  1;
    63    141 100         500 60 0            0      0.0002      0.0041      0.2962           0           0           0           0           0  1;
    65     77 100         500 60 0            0      0.0056       0.592        0.61           0           0           0           0           0  1;
    65     77 100         500 60 0            0      0.0056       0.592        0.61           0           0           0           0           0  1;
    65     77 100         500 60 0            0      0.0056       0.592        0.61           0           0           0           0           0  1;
    65     77 100         500 60 0            0      0.0056       0.592        0.61           0           0           0           0           0  1;
    65     77 100         500 60 0            0      0.0056       0.592        0.61           0           0           0           0           0  1;
    65     77 100         500 60 0            0      0.0056       0.592        0.61           0           0           0           0           0  1;
    65     77 100         500 60 0            0      0.0056       0.592        0.61           0           0           0           0           0  1;
    65     77 100         500 60 0            0      0.0056       0.592        0.61           0           0           0           0           0  1;
    67     70 100         230 60 0            0       6e-05     0.00131     0.00378           0           0           0           0        30.2  1;
    67     70 100         230 60 0            0       6e-05     0.00116     0.00332           0           0           0           0        30.2  1;
    68     71 100         500 60 0            0       1e-05      0.0003     0.01434           0           0           0           0        34.5  1;
    68     71 100         500 60 0            0       1e-05      0.0003     0.01844           0           0           0           0        34.5  1;
    68     75 100         500 60 0            0     0.00023     0.00451      0.3332           0           0           0           0       21.75  1;
    68     75 100         500 60 0            0      0.0002     0.00446       0.305           0           0           0           0       21.75  1;
    72     74 100         500 60 0            0      0.0716      0.0562        0.92           0           0           0           0           0  1;
    72     74 100         500 60 0            0      0.0716      0.0562        0.92           0           0           0           0           0  1;
    72     74 100         500 60 0            0      0.0716      0.0562        0.92           0           0           0           0           0  1;
    72     74 100         500 60 0            0      0.0716      0.0562        0.92           0           0           0           0           0  1;
    73     77 100         500 60 0            0     0.00113     0.02069      1.8553           0           0           0           0           0  1;
    74     75 100         500 60 0            0     0.00392     0.06608        0.94           0           0           0           0           0  1;
    74     75 100         500 60 0            0     0.00392     0.06608        0.94           0           0           0           0           0  1;
    74     77 100         500 60 0            0     0.00568      0.0932        0.47           0           0           0           0           0  1;
    74     77 100         500 60 0            0     0.00568      0.0932        0.47           0           0           0           0           0  1;
    74     77 100         500 60 0            0     0.00568      0.0932        0.47           0           0           0           0           0  1;
    74     77 100         500 60 0            0     0.00568      0.0932        0.47           0           0           0           0           0  1;
    75     77 100         500 60 0            0      0.0012     0.02316      1.7152           0           0           0           0           0  1;
    75     77 100         500 60 0            0      0.0003        0.02         3.6           0           0           0           0           0  1;
    75     81 100         500 60 0            0     0.00063     0.01412      1.0976           0           0           0           0        34.5  1;
    75     81 100         500 60 0            0     0.00109     0.02408      1.5554           0           0           0           0        30.2  1;
    75     81 100         500 60 0            0     0.00108     0.02409      1.5535           0           0           0           0        30.2  1;
    77     79 100         500 60 0            0      0.0004      0.0162        0.65           0           0           0           0           0  1;
    77     79 100         500 60 0            0      0.0004      0.0162        0.65           0           0           0           0           0  1;
    77     79 100         500 60 0            0      0.0004      0.0162        0.65           0           0           0           0           0  1;
    77     79 100         500 60 0            0      0.0004      0.0162        0.65           0           0           0           0           0  1;
    80     98 100         500 60 0            0     0.00528     0.10712     2.64535           0           0           0           0          36  1;
    80     98 100         500 60 0            0     0.00528     0.10712     2.64535           0           0           0           0          36  1;
    80    179 100         500 60 0            0          -0    -0.05334           0           0           0           0           0       17.32  1;
    80    179 100         500 60 0            0          -0    -0.05334           0           0           0           0           0       17.32  1;
    81     86 100         500 60 0            0     0.00041     0.00737     0.72694           0           0           0           0        34.5  1;
    81     90 100         500 60 0            0     0.00066     0.01266     0.95976           0           0           0           0        30.2  1;
    81     94 100         500 60 0            0     0.00066     0.01266     0.95976           0           0           0           0        30.2  1;
    82     88 100         500 60 0            0     0.00072     0.01382      1.2757           0           0           0           0          36  1;
    82     93 100         500 60 0            0     0.00078     0.01502      1.1381           0           0           0           0        30.2  1;
    82     97 100         500 60 0            0     0.00074     0.01413      1.0663           0           0           0           0        30.2  1;
    82    167 100         500 60 0            0          -0     -0.0072           0           0           0           0           0          18  1;
    82    169 100         500 60 0            0          -0    -0.00864           0           0           0           0           0          18  1;
    82    171 100         500 60 0            0          -0       -0.01           0           0           0           0           0           0  1;
    83     98 100         500 60 0            0          -0    -0.05334           0           0           0           0           0       17.32  1;
    83     98 100         500 60 0            0          -0    -0.05334           0           0           0           0           0       17.32  1;
    84    155 100         345 60 0            0      0.0062      0.0673      1.1156           0           0           0           0           0  1;
    84    155 100         345 60 0            0      0.0062      0.0673      1.1156           0           0           0           0           0  1;
    85     87 100         500 60 0            0      0.0006     0.01036      1.0146           0           0           0           0        34.5  1;
    85     89 100         500 60 0            0     0.00012     0.00238     0.21926           0           0           0           0          36  1;
    85    179 100         500 60 0            0     0.00244     0.04746     1.10355           0           0           0           0          36  1;
    85    179 100         500 60 0            0     0.00244     0.04746     1.10355           0           0           0           0          36  1;
    86     87 100         500 60 0            0          -0    -0.01263           0           0           0           0           0          20  1;
    88     89 100         500 60 0            0          -0    -0.00858           0           0           0           0           0          20  1;
    90     91 100         500 60 0            0          -0    -0.01263           0           0           0           0           0          24  1;
    91     92 100         500 60 0            0     0.00074     0.01428      1.0822           0           0           0           0        30.2  1;
    92     93 100         500 60 0            0          -0    -0.01263           0           0           0           0           0          24  1;
    94     95 100         500 60 0            0          -0    -0.01263           0           0           0           0           0          20  1;
    95     96 100         500 60 0            0     0.00074     0.01428      1.0822           0           0           0           0        30.2  1;
    96     97 100         500 60 0            0          -0    -0.01263           0           0           0           0           0          20  1;
    99    100 100         230 60 0            0     0.02482     0.16938     0.20232           0           0           0           0        8.38  1;
    99    116 100         230 60 0            0      0.0148     0.10101     0.12066           0           0           0           0        8.38  1;
   100    104 100         230 60 0            0     0.01382     0.09268      0.1106           0           0           0           0        7.47  1;
   100    105 100         230 60 0            0     0.01668     0.11381     0.13608           0           0           0           0        8.38  1;
   100    112 100         230 60 0            0     0.01113     0.06678     0.07286           0           0           0           0        7.52  1;
   100    112 100         230 60 0            0      0.0105      0.0654      0.0686           0           0           0           0        6.02  1;
   100    112 100         230 60 0            0     0.01105     0.06642      0.0716           0           0           0           0        7.52  1;
   100    116 100         230 60 0            0     0.03903     0.27403     0.31072           0           0           0           0        7.47  1;
   101    103 100         500 60 0            0     0.00079     0.01937      1.3285           0           0           0           0           0  1;
   101    107 100         500 60 0            0     0.00087     0.02087      1.4571           0           0           0           0           0  1;
   101    107 100         500 60 0            0     0.00087     0.02087      1.4571           0           0           0           0           0  1;
   103    106 100         500 60 0            0     0.00083     0.01985           0           0           0           0           0        24.5  1;
   103    133 100         500 60 0            0     0.00093     0.03644      1.3895           0           0           0           0        24.5  1;
   103    134 100         500 60 0            0     0.00072       0.016      1.0879           0           0           0           0        24.5  1;
   104    116 100         230 60 0            0     0.03058      0.2046     0.24472           0           0           0           0        7.47  1;
   105    116 100         230 60 0            0     0.02235     0.16106     0.18342           0           0           0           0        8.38  1;
   106    107 100         500 60 0            0     0.00153      0.0147           0           0           0           0           0        15.6  1;
   106    109 100         500 60 0            0     0.00053     0.01297           0           0           0           0           0        24.5  1;
   107    132 100         500 60 0            0       2e-05    -0.01331           0           0           0           0           0          18  1;
   107    134 100         500 60 0            0       2e-05    -0.00998           0           0           0           0           0        24.5  1;
   107    173 100         500 60 0            0          -0    -0.00935           0           0           0           0           0       21.34  1;
   107    175 100         500 60 0            0          -0    -0.00944           0           0           0           0           0       21.34  1;
   107    177 100         500 60 0            0          -0    -0.00935           0           0           0           0           0       21.34  1;
   110    119 100         500 60 0            0          -0       -0.04           0           0           0           0           0       26.67  1;
   110    119 100         500 60 0            0          -0       -0.04           0           0           0           0           0       26.67  1;
   110    119 100         500 60 0            0          -0       -0.04           0           0           0           0           0       26.67  1;
   110    119 100         500 60 0            0          -0       -0.04           0           0           0           0           0       26.67  1;
   110    172 100         500 60 0            0          -0       -0.01           0           0           0           0           0           0  1;
   113    114 100         500 60 0            0     0.00072     0.00346           0           0           0           0           0           0  1;
   113    123 100         500 60 0            0       2e-05    -0.00998           0           0           0           0           0          18  1;
   113    125 100         500 60 0            0       2e-05    -0.00998           0           0           0           0           0          18  1;
   113    168 100         500 60 0            0          -0     -0.0072           0           0           0           0           0          18  1;
   113    170 100         500 60 0            0          -0     -0.0072           0           0           0           0           0          18  1;
   114    124 100         500 60 0            0       1e-05    -0.00666           0           0           0           0           0          18  1;
   114    126 100         500 60 0            0       1e-05    -0.00666           0           0           0           0           0          18  1;
   114    127 100         500 60 0            0       1e-05     -0.0112           0           0           0           0           0       26.67  1;
   114    129 100         500 60 0            0       1e-05     -0.0072           0           0           0           0           0       26.67  1;
   118    122 100         500 60 0            0          -0       -0.02           0           0           0           0           0       26.67  1;
   118    122 100         500 60 0            0          -0       -0.02           0           0           0           0           0       26.67  1;
   118    128 100         500 60 0            0       1e-05     -0.0112           0           0           0           0           0       26.67  1;
   118    130 100         500 60 0            0       1e-05     -0.0036           0           0           0           0           0       26.67  1;
   118    131 100         500 60 0            0       1e-05    -0.00755           0           0           0           0           0           0  1;
   118    133 100         500 60 0            0       1e-05    -0.01098           0           0           0           0           0        24.5  1;
   119    120 100         500 60 0            0     0.00152     0.03904     0.91225           0           0           0           0       28.94  1;
   119    120 100         500 60 0            0     0.00152     0.03904     0.91225           0           0           0           0       28.94  1;
...